*.MODEL 2N3904 npn
*+IS=6.9716e-14 BF=545.416 NF=1.09328 VAF=10
*+IKF=0.0228393 ISE=5.71808e-12 NE=1.88204 BR=4.70256
*+NR=1.3912 VAR=2.31769 IKR=0.074093 ISC=5.71808e-12
*+NC=1.36259 RB=1.733 IRB=1.12054 RBM=0.876202
*+RE=0.356192 RC=1.78096 XTB=0.1 XTI=1
*+EG=1.05 CJE=4.47982e-12 VJE=0.4 MJE=0.240345
*+TF=4e-10 XTF=1.5 VTF=1 ITF=1
*+CJC=3.76637e-12 VJC=0.4 MJC=0.241382 XCJC=0.8
*+FC=0.533333 CJS=0 VJS=0.75 MJS=0.5
*+TR=3.77901e-05 PTF=0 KF=0 AF=1

*.MODEL 2N3906 pnp
*+IS=1.14615e-14 BF=535.453 NF=1.06473 VAF=10
*+IKF=0.0234918 ISE=1.33613e-13 NE=1.62939 BR=4.66099
*+NR=1.19618 VAR=2.77165 IKR=0.0740931 ISC=1.33613e-13
*+NC=1.22182 RB=0.1 IRB=1.05964 RBM=0.1
*+RE=0.0001 RC=1.39183 XTB=0.1 XTI=1
*+EG=1.05 CJE=6.03788e-12 VJE=0.4 MJE=0.272764
*+TF=4.8381e-10 XTF=1.5 VTF=1 ITF=1
*+CJC=6.18444e-12 VJC=0.4 MJC=0.234098 XCJC=0.8
*+FC=0.5415 CJS=0 VJS=0.75 MJS=0.5
*+TR=2.42096e-06 PTF=0 KF=0 AF=1

.MODEL MPSA92   PNP(Is=218.9f Xti=3 Eg=1.11 Vaf=100 Bf=99 Ne=1.307 Ise=218.9f
+               Ikf=.2016 Xtb=1.5 Br=24.67 Nc=2 Isc=0 Ikr=0 Rc=7 Cjc=19.88p
+               Mjc=.4876 Vjc=.75 Fc=.5 Cje=81.49p Mje=.3493 Vje=.75 Tr=516.9p
+               Tf=1.395n Itf=1.5 Vtf=22 Xtf=270 Rb=10)

.MODEL MPSA42   NPN(Is=34.9f Xti=3 Eg=1.11 Vaf=100 Bf=2.65K Ne=1.708 Ise=16.32p
+               Ikf=23.79m Xtb=1.5 Br=9.769 Nc=2 Isc=0 Ikr=0 Rc=7 Cjc=14.23p
+               Mjc=.5489 Vjc=.75 Fc=.5 Cje=49.62p Mje=.4136 Vje=.75 Tr=934.3p
+               Tf=1.69n Itf=5 Vtf=20 Xtf=150 Rb=10)

.model BD135 NPN(Is=40f Xti=3 Eg=1.11 Vaf=115.7 Bf=180.2 Ise=40f Ne=1.363 Ikf=4.927 Nk=1.247 Xtb=1.5 Br=10 Isc=85f Nc=2 Ikr=0 Rc=0 Cjc=19.23p Mjc=.3439 Vjc=.5635 Fc=.5 Cje=60.49p Mje=.3589 Vje=.7585 Tr=116n Tf=550p Itf=1 Xtf=0 Vtf=10 QCO=1E-10 GAMMA=1E-8 RCO=5)

.model BD136 PNP(Is=10f Xti=3 Eg=1.11 Vaf=95.7 Bf=178.7 Ise=134.1f Ne=1.553 Ikf=2 Nk=.8366 Xtb=1.5 Br=5 Isc=85f Nc=2 Ikr=0 Rc=0 Cjc=60p Mjc=.4 Vjc=.8 Fc=.8 Cje=115.6p Mje=.3766 Vje=.7703 Tr=116n Tf=500p Itf=1 Xtf=0 Vtf=10 QCO=1E-10 GAMMA=5n RCO=5)

.MODEL MJE3055 npn
+IS=1.92238e-13 BF=327.43 NF=0.85 VAF=36.105
+IKF=0.620037 ISE=1.4602e-10 NE=1.50926 BR=0.654697
+NR=0.935367 VAR=361.05 IKR=6.20037 ISC=6.85154e-12
+NC=2.96871 RB=16.05 IRB=0.1 RBM=0.161446
+RE=0.000602331 RC=0.0632768 XTB=0.943656 XTI=1.12302
+EG=1.05 CJE=9.23675e-08 VJE=0.506151 MJE=0.607139
+TF=1e-08 XTF=1.35736 VTF=0.997047 ITF=0.999796
+CJC=5e-10 VJC=0.400198 MJC=0.410184 XCJC=0.803125
+FC=0.658133 CJS=0 VJS=0.75 MJS=0.5
+TR=1e-07 PTF=0 KF=0 AF=1

.MODEL MJE2955 PNP(Is=66.19f Xti=3 Eg=1.11 Vaf=100 Bf=137.6 Ise=862.2f
+ Ne=1.481 Ikf=1.642 Nk=.5695 Xtb=2 Br=5.88 Isc=273.5f Nc=1.24
+ Ikr=3.555 Rc=79.39m Cjc=870.4p Mjc=.6481 Vjc=.75 Fc=.5
+ Cje=390.1p Mje=.4343 Vje=.75 Tr=235.4n Tf=23.21n Itf=71.33
+ Xtf=5.982 Vtf=10 Rb=.1)
